*
*
*
*                       LINUX           Mon Mar 22 15:41:19 2021
*
*
*
*  PROGRAM  advgen
*
*  Name           : advgen - Quantus QRC - (64-bit)
*  Version        : 18.1.2-s132
*  Build Date     : Thu May 10 00:43:37 PDT 2018
*
*  HSPICE LIBRARY
*
*!LENGTH_UNITS METERS
*
*
*

*
.SUBCKT Inverter Vdd Vss vin vout
*
*
*  caps2d version: 10
*
*
*       TRANSISTOR CARDS
*
*
MavD21_1	vout#2	vin#4	Vss#3	Vss#2	nmos#20ivpcell#20gpdk180
+ L=1.8e-07	W=2e-06
+ AD=1.2e-12	AS=1.2e-12	PD=5.2e-06	PS=5.2e-06
+ simW=2e-06 fw=2e-06
MavD27_1	vout#3	vin#2	Vdd#3	Vdd#2	pmos#20ivpcell#20gpdk180
+ L=1.8e-07	W=2e-06
+ AD=1.2e-12	AS=1.2e-12	PD=5.2e-06	PS=5.2e-06
+ simW=2e-06 fw=2e-06
*
*
*       RESISTOR AND CAP/DIODE CARDS
*
Rf1	vin	vin#1	3.750E-02	$mt1	$X=0.2745 $Y=3.47
Rf2	Vdd	Vdd#1	    0.1243	$mt1	$X=3.4 $Y=6.84
Rf3	Vdd#1	Vdd#2	    7.8941	$mt1	$X=2.28 $Y=6.84
Rf4	Vdd#1	Vdd#3	    2.1739	$mt1	$X=3.105 $Y=6.2925
Rf5	Vss	Vss#1	    0.1243	$mt1	$X=3.4 $Y=0.15
Rf6	Vss#1	Vss#2	    7.6508	$mt1	$X=2.58 $Y=0.15
Rf7	Vss#1	Vss#3	    2.1301	$mt1	$X=3.105 $Y=0.61
Rf8	vout	vout#1	    0.9370	$mt1	$X=5.4625 $Y=3.495
Rf9	vout#1	vout#2	    2.1662	$mt1	$X=3.885 $Y=3.0325
Rf10	vout#1	vout#3	    2.1225	$mt1	$X=3.885 $Y=3.87
Rg1	vin#2	vin#3	   21.5879	$poly	$X=3.495 $Y=3.778
Rg2	vin#3	vin#1	  127.3713	$poly	$X=2.0025 $Y=3.47
Rg3	vin#3	vin#4	   26.7963	$poly	$X=3.495 $Y=3.1
*
*       CAPACITOR CARDS
*
*
C1	Vdd	Vss	cmodel	3.71087E-16	$X=5.115 $Y=3.638
C2	vin	Vss	cmodel	4.41129E-17	$X=0.404 $Y=3.294
C3	vout	Vss	cmodel	1.93224E-16	$X=5.917 $Y=2.495
C4	vin#2	Vss	cmodel	1.784E-16	$X=3.984 $Y=3.5925
C5	vin#4	Vss	cmodel	1.87992E-16	$X=3.993 $Y=1.355
C6	vin#1	Vss	cmodel	2.76735E-16	$X=2.6045 $Y=2.1135
C7	vout#2	Vss	cmodel	3.08522E-16	$X=4.741 $Y=0.7515
C8	Vdd#2	Vss	cmodel	4.35583E-16	$X=5.19 $Y=0.157
C9	vout#3	Vss	cmodel	2.9318E-16	$X=4.736 $Y=1.818
C10	Vdd#3	Vss	cmodel	2.16994E-16	$X=4.48 $Y=1.8345
C11	Vdd#1	Vss	cmodel	1.23517E-16	$X=3.8625 $Y=4.283
C12	vin#3	Vss	cmodel	1.9581E-16	$X=3.3455 $Y=2.6125
C13	vout#1	Vss	cmodel	1.82637E-16	$X=4.9445 $Y=2.123
*
*
.ENDS Inverter
*
